
Spectre (R) Circuit Simulator
Version 19.1.0.396.isr8 64bit -- 19 Jun 2020
Copyright (C) 1989-2020 Cadence Design Systems, Inc. All rights reserved worldwide. Cadence and Spectre are registered trademarks of Cadence Design Systems, Inc. All others are the property of their respective holders.

Includes RSA BSAFE(R) Cryptographic or Security Protocol Software from RSA Security, Inc.

User: poojabe   Host: edatools-server2   HostID: 7F0100   PID: 130634
Memory  available: 230.8001 GB  physical: 539.4349 GB
Linux   : Red Hat Enterprise Linux Server release 7.9 (Maipo)
CPU Type: Intel(R) Xeon(R) Gold 6226R CPU @ 2.90GHz
        Socket: Processors [Frequency] (Hyperthreaded Processor)
        0:       0 [3599.9] ( 32 ),  1 [3600.0] ( 33 ),  2 [3599.9] ( 34 )
                 3 [3599.9] ( 35 ),  4 [3599.9] ( 36 ),  5 [3599.9] ( 37 )
                 6 [3599.9] ( 38 ),  7 [3537.7] ( 39 ),  8 [3559.0] ( 40 )
                 9 [3599.9] ( 41 ), 10 [3600.0] ( 42 ), 11 [3556.9] ( 43 )
                12 [3599.9] ( 44 ), 13 [3599.7] ( 45 ), 14 [3599.9] ( 46 )
                15 [3599.9] ( 47 )
        1:      16 [3599.9] ( 48 ), 17 [3599.9] ( 49 ), 18 [3599.9] ( 50 )
                19 [3599.9] ( 51 ), 20 [3599.9] ( 52 ), 21 [3562.0] ( 53 )
                22 [3568.5] ( 54 ), 23 [3597.4] ( 55 ), 24 [3550.0] ( 56 )
                25 [3599.9] ( 57 ), 26 [3599.9] ( 58 ), 27 [3599.2] ( 59 )
                28 [3547.3] ( 60 ), 29 [3599.9] ( 61 ), 30 [3485.2] ( 62 )
                31 [3332.8] ( 63 )
        
System load averages (1min, 5min, 15min) : 7.2 %, 7.4 %, 7.2 %
Hyperthreading is enabled
HPC is enabled


Simulating `input.scs' on edatools-server2 at 10:05:33 AM, Fri May 31, 2024 (process id: 130634).
Current working directory: /home/poojabe/Desktop/PhD_Research/src_project/ml_lib_char/LiMo2/gates/dff/simulation/schematic/netlist
Command line:
    /cadence/SPECTRE191/tools/bin/spectre -64 input.scs +escchars +log  \
        ../psf/spectre.out +inter=mpsc +mpssession=spectre0_46224_85  \
        -format psfxl -raw ../psf +aps +lqtimeout 900 -maxw 5 -maxn 5  \
        -env ade
spectre pid = 130634

Loading /cadence/SPECTRE191/tools.lnx86/cmi/lib/64bit/5.0/libinfineon_sh.so ...
Loading /cadence/SPECTRE191/tools.lnx86/cmi/lib/64bit/5.0/libphilips_o_sh.so ...
Loading /cadence/SPECTRE191/tools.lnx86/cmi/lib/64bit/5.0/libphilips_sh.so ...
Loading /cadence/SPECTRE191/tools.lnx86/cmi/lib/64bit/5.0/libsparam_sh.so ...
Loading /cadence/SPECTRE191/tools.lnx86/cmi/lib/64bit/5.0/libstmodels_sh.so ...
Reading file:  /home/poojabe/Desktop/PhD_Research/src_project/ml_lib_char/LiMo2/gates/dff/simulation/schematic/netlist/input.scs
Reading file:  /cadence/SPECTRE191/tools.lnx86/spectre/etc/configs/spectre.cfg
Reading file:  /cadence/FOUNDRY/analog/45nm/models/spectre/gpdk045.scs
Reading file:  /cadence/FOUNDRY/analog/45nm/models/spectre/gpdk045_mos.scs
Reading file:  /cadence/FOUNDRY/analog/45nm/models/spectre/gpdk045_diode.scs
Reading file:  /cadence/FOUNDRY/analog/45nm/models/spectre/gpdk045_bipolar.scs
Reading file:  /cadence/FOUNDRY/analog/45nm/models/spectre/gpdk045_mimcap.scs
Reading file:  /cadence/FOUNDRY/analog/45nm/models/spectre/gpdk045_moscap.scs
Reading file:  /cadence/FOUNDRY/analog/45nm/models/spectre/gpdk045_resistor.scs
Reading file:  /cadence/FOUNDRY/analog/45nm/models/spectre/gpdk045_inductor.scs
Reading file:  /cadence/FOUNDRY/analog/45nm/models/spectre/gpdk045_soa.scs
Reading file:  /home/poojabe/Desktop/PhD_Research/src_project/ml_lib_char/LiMo2/gates/dff/simulation/schematic/netlist/_graphical_stimuli_1.scs
Time for NDB Parsing: CPU = 379.729 ms, elapsed = 1.57124 s.
Time accumulated: CPU = 480.596 ms, elapsed = 1.57124 s.
Peak resident memory used = 72.2 Mbytes.

Reading link:  /cadence/SPECTRE191/tools.lnx86/spectre/etc/ahdl/discipline.h
Reading file:  /cadence/SPECTRE191/tools.lnx86/spectre/etc/ahdl/disciplines.vams
Reading link:  /cadence/SPECTRE191/tools.lnx86/spectre/etc/ahdl/constants.h
Reading file:  /cadence/SPECTRE191/tools.lnx86/spectre/etc/ahdl/constants.vams
Existing shared object for module bsource_2b273e is up to date.
Installed compiled interface for bsource_2b273e.
Time for Elaboration: CPU = 28.658 ms, elapsed = 28.6601 ms.
Time accumulated: CPU = 509.361 ms, elapsed = 1.60001 s.
Peak resident memory used = 82 Mbytes.


Warning from spectre during hierarchy flattening.
    WARNING (SPECTRE-17101): The value 'psf' specified for the 'checklimitdest' option will no longer be supported in future releases. Use 'spectre -h' to see other recommended values for the 'checklimitdest' option.


Time for EDB Visiting: CPU = 2.216 ms, elapsed = 2.2161 ms.
Time accumulated: CPU = 511.688 ms, elapsed = 1.60233 s.
Peak resident memory used = 83.1 Mbytes.


Notice from spectre during initial setup.
    Multithreading is disabled due to the size of the design being too small.


Global user options:
         psfversion = 1.4.0
            vabstol = 1e-06
            iabstol = 1e-12
               temp = 0
               gmin = 1e-12
             rforce = 1
           maxnotes = 5
           maxwarns = 5
             digits = 5
               cols = 80
             pivrel = 0.001
           sensfile = ../psf/sens.output
     checklimitdest = psf
               save = allpub
           currents = all
             reltol = 0.001
               tnom = 27
             scalem = 1
              scale = 1

Scoped user options:

Circuit inventory:
              nodes 41
              bsim4 24    
     bsource_2b273e 24    
          capacitor 1     
            vsource 4     

Analysis and control statement inventory:
               info 7     
               tran 1     

Output statements:
             .probe 0     
           .measure 0     
               save 0     


Notice from spectre during initial setup.
    1 vsources are short because their absolute value is less than or equal to 'vabsshort'.
    APS Enabled.

Time for parsing: CPU = 4.381 ms, elapsed = 4.86302 ms.
Time accumulated: CPU = 516.154 ms, elapsed = 1.60728 s.
Peak resident memory used = 84.7 Mbytes.

~~~~~~~~~~~~~~~~~~~~~~
Pre-Simulation Summary
~~~~~~~~~~~~~~~~~~~~~~
~~~~~~~~~~~~~~~~~~~~~~
Entering remote command mode using MPSC service (spectre, ipi, v0.0, spectre0_46224_85, ).

*************************************************
Transient Analysis `tran': time = (0 s -> 2.5 ns)
*************************************************
Trying `homotopy = gmin' for initial conditions.

Notice from spectre during IC analysis, during transient analysis `tran'.
    GminDC = 1 pS is large enough to noticeably affect the DC solution.
        dV(I0.n25) = 36.9472 mV
        Use the `gmin_check' option to eliminate or expand this report.
    Bad pivoting is found during DC analysis. Option dc_pivot_check=yes is recommended for possible improvement of convergence.

DC simulation time: CPU = 14.743 ms, elapsed = 14.744 ms.

Opening the PSFXL file ../psf/tran.tran.tran ...
Important parameter values:
    start = 0 s
    outputstart = 0 s
    stop = 2.5 ns
    step = 100 ps
    maxstep = 50 ps
    ic = all
    useprevic = no
    skipdc = no
    reltol = 1e-03
    abstol(V) = 1 uV
    abstol(I) = 1 pA
    temp = 0 C
    tnom = 27 C
    tempeffects = all
    errpreset = moderate
    method = traponly
    lteratio = 3.5
    relref = sigglobal
    cmin = 0 F
    gmin = 1 pS
    rabsshort = 1 mOhm


Notice from spectre during transient analysis `tran'.
    Multithreading is disabled due to the size of the design being too small.


Output and IC/nodeset summary:
                 save   148     (current)
                 save   40      (voltage)

    tran: time = 100 ps         (4 %), step = 50 ps           (2 %)
    tran: time = 200 ps         (8 %), step = 50 ps           (2 %)
    tran: time = 350 ps        (14 %), step = 50 ps           (2 %)
    tran: time = 450 ps        (18 %), step = 50 ps           (2 %)
    tran: time = 600 ps        (24 %), step = 50 ps           (2 %)
    tran: time = 700 ps        (28 %), step = 50 ps           (2 %)
    tran: time = 850 ps        (34 %), step = 50 ps           (2 %)
    tran: time = 970 ps      (38.8 %), step = 35 ps         (1.4 %)
    tran: time = 1.064 ns    (42.5 %), step = 1.723 ps    (68.9 m%)
    tran: time = 1.204 ns    (48.2 %), step = 31.04 ps     (1.24 %)
    tran: time = 1.313 ns    (52.5 %), step = 2.226 ps      (89 m%)
    tran: time = 1.443 ns    (57.7 %), step = 13.89 ps     (556 m%)
    tran: time = 1.571 ns    (62.9 %), step = 50 ps           (2 %)
    tran: time = 1.688 ns    (67.5 %), step = 11.81 ps     (472 m%)
    tran: time = 1.814 ns    (72.6 %), step = 4.601 ps     (184 m%)
    tran: time = 1.968 ns    (78.7 %), step = 50 ps           (2 %)
    tran: time = 2.065 ns    (82.6 %), step = 3.125 ps     (125 m%)
    tran: time = 2.192 ns    (87.7 %), step = 8.87 ps      (355 m%)
    tran: time = 2.319 ns    (92.7 %), step = 26.73 ps     (1.07 %)

Notice from spectre at time = 2.3687 ns during transient analysis `tran'.
    Found trapezoidal ringing on node I0.n21.

    tran: time = 2.46 ns     (98.4 %), step = 41.3 ps      (1.65 %)
Number of accepted tran steps =             269

Notice from spectre during transient analysis `tran'.
    Trapezoidal ringing is detected during tran analysis.
        Please use method=trap for better results and performance.


Maximum value achieved for any signal of each quantity: 
V: V(I0.n26) = 1.566 V
I: I(_vVDD:p) = 250.9 uA
If your circuit contains signals of the same quantity that are vastly different in size (such as high voltage circuitry combined with low voltage control circuitry), you should consider specifying global option `bin_relref=yes'.

~~~~~~~~~~~~~~~~~~~~~~~~~~~~~~~~~
Post-Transient Simulation Summary
~~~~~~~~~~~~~~~~~~~~~~~~~~~~~~~~~
   -   To further speed up simulation, consider
          add ++aps on command line
~~~~~~~~~~~~~~~~~~~~~~~~~~~~~~~~~


During simulation, the CPU load for active processors is :
         0 (8.4 %)       1 (9.9 %)       2 (10.4 %)      3 (100.0 %)
         4 (13.3 %)      5 (9.3 %)       6 (11.5 %)      7 (16.9 %)
         8 (12.2 %)      9 (10.5 %)     10 (10.9 %)     11 (14.2 %)
        12 (16.0 %)     13 (12.6 %)     14 (11.6 %)     15 (7.8 %)
        16 (5.0 %)      17 (5.5 %)      18 (5.5 %)      19 (12.7 %)
        20 (9.3 %)      21 (6.6 %)      22 (8.7 %)      23 (13.2 %)
        24 (8.2 %)      25 (6.0 %)      26 (6.0 %)      27 (6.1 %)
        28 (6.6 %)      29 (100.0 %)    30 (7.1 %)      31 (3.3 %)
        32 (4.4 %)      33 (21.6 %)     34 (9.4 %)      35 (2.7 %)
        36 (4.4 %)      37 (5.5 %)      38 (5.0 %)      39 (6.1 %)
        40 (4.4 %)      41 (8.2 %)      42 (4.9 %)      43 (4.4 %)
        44 (7.1 %)      45 (1.6 %)      46 (3.3 %)      47 (5.0 %)
        48 (19.1 %)     49 (18.8 %)     50 (14.4 %)     51 (4.4 %)
        52 (2.7 %)      53 (10.4 %)     54 (21.1 %)     55 (7.8 %)
        56 (3.3 %)      57 (3.3 %)      58 (3.3 %)      59 (4.9 %)
        60 (3.8 %)      61 (2.8 %)      62 (3.3 %)      63 (3.3 %)
        Total: 710.3%
Initial condition solution time: CPU = 14.785 ms, elapsed = 14.786 ms.
Intrinsic tran analysis time:    CPU = 62.171 ms, elapsed = 56.685 ms.
Total time required for tran analysis `tran': CPU = 79.925 ms, elapsed = 74.435 ms.
Time accumulated: CPU = 606.504 ms, elapsed = 2.06805 s.
Peak resident memory used = 90.5 Mbytes.

finalTimeOP: writing operating point information to rawfile.

Opening the PSF file ../psf/finalTimeOP.info ...
modelParameter: writing model parameter values to rawfile.

Opening the PSF file ../psf/modelParameter.info ...
element: writing instance parameter values to rawfile.

Opening the PSF file ../psf/element.info ...
outputParameter: writing output parameter values to rawfile.

Opening the PSF file ../psf/outputParameter.info ...
designParamVals: writing netlist parameters to rawfile.

Opening the PSFASCII file ../psf/designParamVals.info ...
primitives: writing primitives to rawfile.

Opening the PSFASCII file ../psf/primitives.info.primitives ...
subckts: writing subcircuits to rawfile.

Opening the PSFASCII file ../psf/subckts.info.subckts ...
